24
Coordinates from ORCA-job 0_oniom.QMRegion
  H   -0.75828824693563      6.43338837292442      4.95104075036971
  O   -1.34616053021018      6.98849941972184      5.52154136028107
  H   -1.45567921699107      7.85951588556427      5.06660227309349
  H   -2.15590465872830      9.05981210703252      3.54231867338929
  O   -2.07085805303929      9.36171524623070      4.46944480330177
  H   -2.96728875361821      9.25533840704568      4.85175853756185
  H   -0.09369991669803      5.94486271512740     10.74626008196104
  O   -0.87162785257070      6.49892881158917     10.63135236709358
  H   -0.78455846403699      6.84419202350348      9.72254030864054
  H   -4.47342848781063      8.60735112102272      6.65664477080283
  O   -4.48654982932476      8.55789571393624      5.69556340769784
  H   -4.33993415322779      7.60523516137789      5.50192716337958
  H   0.62361390083059      7.18564316037797      7.68353951775562
  O   -0.30859966490956      7.26094311561490      7.95123130645860
  H   -0.77302183741694      7.22208709555151      7.06907986778183
  H   2.87128636698292      6.42869518128881      6.28417648248745
  O   1.90812357156721      6.55255436965610      6.38450458650356
  H   1.56136570953643      5.64054557862987      6.24995574399384
  H   1.13575769277410      8.98404991902060      4.52843120611531
  O   1.25802064415752      8.11664450171480      4.12382419343728
  H   1.50701177484254      7.53199840896190      4.86564662434245
  S   0.38400412186675     10.70490281390399      6.61071306326187
  H   0.01845294876276      9.68211213312919      7.41639592028961
  H   -0.73229893572233     10.58171996333868      5.86025041180826
