12
Coordinates from ORCA-job 111_oniom.QMRegion
  H   -2.43763471474425      3.00101102586653     10.33088771748973
  O   -2.30632749643501      2.04375990827889     10.15481967940588
  H   -2.88234223945459      1.85698104878685      9.39257374342478
  H   -0.02205015469686      3.38273205702159      8.94937101536376
  O   0.24210619348721      2.49270084537114      9.26069400656039
  H   -0.56818867141003      2.18998499533385      9.71935628782036
  H   -2.03341378760381      5.37372430343975     10.73474147457766
  O   -2.70859346634409      4.66888499490418     10.86627491042045
  H   -2.79980752859579      4.56166958078146     11.82199167986385
  S   -2.86453179399310      2.30093967371299     13.51146337624035
  H   -1.55096444838370      2.08087781799039     13.73007353240767
  H   -2.79613433411212      1.77616375611375     12.26352342626586
