15
Coordinates from ORCA-job 132_oniom.QMRegion
  H   -0.68660468683312      4.55476889325950     -4.00509316782580
  O   -1.47919462900100      5.09019368918032     -4.21645718833827
  H   -1.32829634649748      5.95159621896563     -3.77408806929351
  H   -2.09663992365403      6.48361177166805     -6.84554332586652
  O   -2.11536112073905      5.53793174668553     -6.68201417872495
  H   -1.78960016643800      5.40861224899697     -5.73165684172257
  H   0.76649090111160      2.97306901017741     -7.17457816490579
  O   1.69315860281457      2.66208055719407     -7.18582291085371
  H   1.70317645429797      1.88960704627554     -7.78828177935448
  H   -1.58717751021039      3.63207489687738     -7.10285921205089
  O   -0.99610234093530      2.94188692562567     -6.77656522066194
  H   -1.18709426167963      2.11307144346544     -7.28687989364240
  S   0.48975121351977      5.70839474372437     -9.16176192922503
  H   1.47210097037608      5.06850042373294     -8.49336521228352
  H   -0.39023608574616      5.49821028065763     -8.15587612339025
