21
Coordinates from ORCA-job 146_oniom.QMRegion
  H   3.30598586979254     -2.63247368047690     -8.41746530143978
  O   3.19317493871395     -3.15417785741145     -7.60390404269753
  H   4.08230321031409     -3.13655929643748     -7.20057827456556
  H   3.23208636439523     -0.85871883922044     -5.65888616010040
  O   2.38254063564939     -0.98106412729479     -6.13809596542627
  H   2.46481895556854     -1.86026325442589     -6.55914594720112
  H   1.98618735011415     -0.14400813605710     -7.54010478799344
  O   1.56216866638149      0.31606260726707     -8.31210650947111
  H   1.98349781628371     -0.05717105014804     -9.09052565959828
  H   4.91544488284572     -1.43910388458951     -9.37193208468913
  O   3.96691810526580     -1.23914379625696     -9.58421108071048
  H   3.85989475563899     -1.49127877487029    -10.50533032738678
  H   -0.29938887237720      0.40818353496428     -8.06843458065352
  O   -1.22940489858275      0.59992908993598     -7.83713953938853
  H   -1.35166721587640      0.16349411520904     -6.97551814382710
  H   -0.78025447460921     -3.38043640572770     -6.55847892898472
  O   -0.14595211945943     -2.65326902301909     -6.69178179752012
  H   -0.58060178354276     -1.87772257310278     -6.27698746331227
  S   0.51167589375117     -2.37861411826724    -10.25918917221746
  H   -0.41714403708524     -1.41328211276065    -10.42759301994025
  H   0.24904163035440     -2.45554080927545     -8.93085147760244
