9
Coordinates from ORCA-job 148_oniom.QMRegion
  H   8.66963598040414     -5.22208034679100     -2.85342744009071
  O   7.98510251819194     -5.60969539428430     -2.28151133507278
  H   7.97905892004491     -6.57415567527516     -2.34027174816747
  H   9.88230044740892     -3.26624025775022     -3.08582557976564
  O   9.60935672674730     -3.91989189696743     -3.76471670576740
  H   9.21288707622419     -3.39625576763124     -4.48044550808881
  S   11.79043752368252     -6.49088217151368     -4.32579834316229
  H   12.83264748050643     -5.88680101362407     -3.72087982352205
  H   11.03056451338101     -5.37081895489138     -4.26344763417336
