33
Coordinates from ORCA-job 14_oniom.QMRegion
  H   -0.74833964520493      6.29886583789825      5.05131034509350
  O   -1.34621499443690      6.88208150462837      5.59163435809729
  H   -1.35483737831296      7.74987581314120      5.10804938301466
  H   -1.71944159154623      4.39498896867898      7.66179446164260
  O   -0.84689265494953      4.52565002566935      8.09796946152247
  H   -0.62539793240406      5.47589755958077      8.07017286042638
  H   -3.88452004577946      4.56603795694165      7.74446896680878
  O   -3.31365676655753      4.12643647761051      7.07076980926335
  H   -3.49417590526609      3.18024053231014      7.22830580986534
  H   -1.84127043701546      8.91795790099783      3.46718534835014
  O   -1.57919004598834      9.24419432063833      4.35828925061635
  H   -2.44104153631796      9.33677895872972      4.81884748786190
  H   -3.89251310673104      5.19176491252288      5.56516585131929
  O   -3.87728235286480      6.06848202130715      5.14620384569697
  H   -2.93096067141190      6.32546935831765      5.22873510098656
  H   -2.00702720950092      5.22177976772766     10.72385221255207
  O   -2.78594530428343      4.63781634929415     10.89513201123444
  H   -2.98264014402791      4.74664441137701     11.82859170927968
  H   -4.23456027428067      4.90918594519982      9.81527797745888
  O   -4.84971962544418      5.08241645016122      9.07317120737239
  H   -5.46839386146710      4.33349951691425      9.05751743747114
  H   0.15966783505708      5.99664269503916     10.89874364983147
  O   -0.68190515517852      6.39594840990111     10.65598705421064
  H   -0.51657080550380      6.78253166134281      9.77406390926763
  H   -4.03042512028916      9.01915152571215      6.57289011135099
  O   -4.07351870702452      8.95861404188563      5.60478290220157
  H   -4.25261662558335      8.01449390635607      5.45248852039664
  H   0.70919367508030      7.12717478219024      7.59198353378283
  O   -0.19866221959312      7.16535668422230      7.94988118656249
  H   -0.71500623500532      7.16898170156314      7.09408695742628
  S   -3.84712570269920      8.54970942469452      8.96833591972171
  H   -4.37431109630873      7.31051349936983      8.84300414584683
  H   -2.58616754794037      8.10658027148938      8.78855553915562
