24
Coordinates from ORCA-job 152_oniom.QMRegion
  H   6.44362302844074     -4.11828638289726     -0.51705552002440
  O   7.21376821680238     -4.51132838084365     -0.06773768262940
  H   7.67226104948458     -4.95026477617161     -0.81739264437288
  H   7.47995916271737     -2.53974828591556      4.20847018224412
  O   7.44456612720373     -2.55924241689837      3.23740691047825
  H   7.07875817631891     -3.44624599744054      3.05470485390151
  H   6.73979755783917     -5.93688043248170      2.71323536698857
  O   6.81746913946004     -5.24382213895458      3.40004075190815
  H   7.67975575456351     -5.34016928358596      3.85489374158884
  H   9.29607396364983      0.25068935294940     -1.10250157718296
  O   8.63300449653592      0.52280846507231     -0.46137309786086
  H   8.36189389504246     -0.31111129420305     -0.04345135751551
  H   8.02877548019057     -2.99245750120191      0.38356087366728
  O   8.44128605157209     -2.16385522522035      0.70996591316867
  H   8.16635984962442     -2.15902473162654      1.65005641509454
  H   9.69146552407652     -4.37357679712069      4.24457035936938
  O   9.11821646678261     -4.86345349891266      4.86095634848855
  H   8.71498186696421     -4.17606696617834      5.41147096362722
  H   9.72014540299923     -2.18491577788869     -1.08150549585069
  O   9.92739852987330     -1.87120013761618     -1.97073204167822
  H   9.05087083623836     -1.63664112246538     -2.35221979295246
  S   11.14733130667301     -3.57367107872242      2.41573430720762
  H   10.16963363625785     -3.02917233448778      1.64373452237169
  H   11.09446371845854     -4.74627032246509      1.75165406942337
