6
Coordinates from ORCA-job 15_oniom.QMRegion
  H   4.78138175999326      8.41525119656469      0.05219672554171
  O   5.15029893242446      8.40459649929347      0.96097474522440
  H   5.40799407684065      7.47519019087908      1.08267867943471
  S   7.56488499749761     10.79080322586527      1.61641583686659
  H   6.65543604093866      9.85428776629436      1.24796507843314
  H   8.06231570694914      9.99781149577731      2.58775273929917
