36
Coordinates from ORCA-job 169_oniom.QMRegion
  H   -3.02872118994294     -1.86952403542406     -3.15129599551668
  O   -2.59305812943507     -0.98348476746395     -3.12082544240439
  H   -3.27401617107893     -0.34157495931078     -3.39868674859391
  H   -1.58781955199870     -0.83885490529483     -4.66160832573509
  O   -1.06317865275041     -0.57131725894851     -5.44328544920493
  H   -0.33432067422220     -0.03799533172609     -5.09085118372161
  H   -3.36817315990772      1.58341855961221     -4.11123862339623
  O   -4.23717228368155      1.13668747606674     -3.92373288875842
  H   -4.42920797685694      1.27803226777557     -2.95659663091098
  H   -1.15698556799618      1.56443955090772     -3.89247542968699
  O   -1.83919329799622      2.15881036243046     -4.26815766227679
  H   -1.48895649387091      2.54483558544252     -5.09912847602262
  H   -5.12624299445923      5.76204521187869     -5.57209675973662
  O   -4.53905696363980      4.97801256522520     -5.61540994764937
  H   -3.77199016374463      5.20311689940595     -6.16570138839463
  H   -5.61674945012518      3.44934998480846     -5.61951763586522
  O   -6.11883670602686      2.77640392206597     -5.12452743404145
  H   -5.42440883827563      2.26805362429417     -4.65360882371541
  H   -5.24874420073095     -0.12885410190950     -4.66662542577867
  O   -5.82938754896895     -0.84798163072423     -4.98095693847011
  H   -6.69837568405396     -0.42440614940980     -5.11875427563261
  H   -7.46895312826951      1.59994840398832     -5.23649484229518
  O   -8.02124210949965      0.83282364773346     -4.98368922559136
  H   -8.93237028075407      1.21304304031811     -4.88006612454566
  H   -4.10566475684498     -3.14093873784458     -4.88170024021254
  O   -4.23592349304736     -3.03205703373110     -5.85374059884272
  H   -4.79699697827656     -2.24521782150452     -5.90839988374206
  H   -1.34419272657650      3.78641571924796     -7.00654565981109
  O   -0.85494776511683      3.00374262036915     -6.70196116640293
  H   -1.06880461344505      2.23506046242327     -7.28555482956567
  H   -0.09566563995919      0.41817387745705     -8.24581484559300
  O   -1.00689082801051      0.63854049500175     -7.97433541280369
  H   -1.14816545658749      0.12802661209914     -7.15409742057660
  S   -4.40154345940549      1.36983645664562     -7.96262294503364
  H   -3.24426883139938      0.83116273667027     -8.40379080967580
  H   -4.67766819058469      0.28979194888724     -7.19827846249872
