21
Coordinates from ORCA-job 178_oniom.QMRegion
  H   -3.44029588352705      6.37361978448216     -0.46161610066839
  O   -3.29229089373356      7.03620130228876     -1.19171131646528
  H   -3.08370815472056      7.88617909857022     -0.75656443638466
  H   -3.16115929956424      4.90967338584158      1.15828991066579
  O   -3.92794789200794      5.31174165280107      0.69666710402648
  H   -4.33964434615833      5.82206541393960      1.43800676854064
  H   -1.82194946627372      9.69922914266093     -0.73375153171010
  O   -2.60303450622377      9.45410990202263     -0.17629487153853
  H   -3.32181432313191     10.06231938291731     -0.38301182853781
  H   -2.27570361619698      8.75168298041477      1.39373913578840
  O   -2.18554910861817      8.11370594681984      2.12691120371847
  H   -1.39050679132032      7.58310910612215      1.92286039383662
  H   -4.42270552562202      6.46042013298889      3.61167842077688
  O   -4.57360758758920      6.87292613500417      2.73842589757499
  H   -3.73818477037259      7.36093955892406      2.57549445364127
  H   -4.41873841693228      9.09651233521761     -3.16051846323148
  O   -5.00606559602384      8.35718085068637     -2.95872044237393
  H   -4.50517471286744      7.83539773451232     -2.30250921561614
  S   -6.01422415824657      9.39148177918967      0.51343036082124
  H   -6.09881630033965      8.49252849406579     -0.49125391489819
  H   -5.77186934823670      8.43870450076674      1.44279412696906
