9
Coordinates from ORCA-job 186_oniom.QMRegion
  H   3.74408207232874      7.10055637116458     -1.16393174742155
  O   3.92564939735733      8.05392231212580     -1.33062021654475
  H   4.30415271226215      8.03149604147974     -2.21705098121941
  H   4.19069918936346      5.97496988728097     -3.75392945954816
  O   4.86520064348189      6.67558166203986     -3.69894801188753
  H   5.67522852446157      6.18627846187969     -3.50077326890202
  S   4.86382575713119      8.85114187151486     -6.42595971148278
  H   4.88555090911640      7.90056670291187     -5.46103545069318
  H   5.72728807755213      9.63729641168893     -5.75057395860192
