15
Coordinates from ORCA-job 18_oniom.QMRegion
  H   4.43477880854581     -2.42239466442563      5.60802213163960
  O   4.10576631985901     -3.08940883627319      6.25723750213805
  H   4.43417719299892     -3.95107560107091      5.91401409767280
  H   5.66676978696917     -5.46999376569048      4.59665688741241
  O   5.13894701928925     -5.49441014136821      5.43048631527428
  H   4.37405088553570     -6.05373927559258      5.22513388976715
  H   4.18427518329962     -0.48752736928885      7.78012989851194
  O   3.92623777969563      0.05662553439656      7.02865944569768
  H   4.74749542239186      0.42492978832760      6.67211881291089
  H   7.26562791538782     -2.93339427812828      6.86252331599698
  O   7.32677838639978     -3.29628643637566      5.96688498242460
  H   6.62245410291748     -3.95347522424845      5.93073005428880
  S   5.85733913899381     -2.33657684328779      8.72230028741255
  H   5.61813494010369     -3.44018496783614      9.46028565860507
  H   5.01517123814198     -2.75324778708157      7.68764484634724
