30
Coordinates from ORCA-job 19_oniom.QMRegion
  H   -2.36330798664483     -3.65677415113367      2.02277070342639
  O   -2.37609934356358     -4.58154239503587      2.34280309086837
  H   -1.42711907714995     -4.80088515027866      2.47622370882423
  H   -2.08641920969455     -8.12405526261636      0.43253255662313
  O   -1.74726459629274     -7.67292829035922      1.24016585355913
  H   -2.52829361119550     -7.33647903841515      1.68607410124489
  H   -5.33538916437988     -5.12118096680471      1.82885151772810
  O   -4.67676346064017     -5.80231737677087      1.52964553720642
  H   -3.81585391929558     -5.36011062432262      1.68995950945315
  H   -4.37273003892073     -2.50142748769060      4.21426379024298
  O   -5.29667910698817     -2.21573002312226      4.04355349524420
  H   -5.18925826305527     -1.42508065379277      3.46565086291120
  H   -5.81373039616995     -3.18792271849636      1.30200457810605
  O   -6.28128449576035     -3.73549181445275      1.98525486487219
  H   -6.07717184802154     -3.24884170019714      2.80888977466930
  H   -5.64201381321033     -8.13784623369915     -0.70560979617784
  O   -4.96453599765411     -8.21195844435419      0.00600180799792
  H   -4.94152167739221     -7.33999922978783      0.43595372847381
  H   -1.98150765415285     -2.95737870246884      4.63112063531186
  O   -2.87515067782788     -3.31010109778454      4.85584058527503
  H   -2.93558653244382     -4.10952670086784      4.31052535237087
  H   -5.25290946876011     -1.98333542239356      7.03894986849242
  O   -5.92939220590244     -1.48708767821082      6.55155519162928
  H   -5.88197303964052     -1.82960117808036      5.63445304424927
  H   -3.32945628915815     -3.59074374569561      7.98212373668674
  O   -3.60483426976356     -2.90347470694740      7.37189743626318
  H   -3.28684437752582     -3.18492829881043      6.47941077028801
  S   -5.13255571258559     -6.05599864622599      5.07233389352734
  H   -6.01060221991936     -5.05806141219153      4.84310433639811
  H   -5.08470034876235     -6.37731904743100      3.75956680555574
