18
Coordinates from ORCA-job 1_oniom.QMRegion
  H   0.60631934888724     -5.05159113586132      1.91670535615680
  O   0.10907578505585     -5.17200498801623      2.74796232231925
  H   0.20448349198457     -6.11652443812909      2.93822888978602
  H   3.27200134500171     -6.03924304538977      3.23020781182612
  O   3.66812991400477     -5.84073526089367      2.34513133972720
  H   2.95184200928200     -5.49848422420353      1.77400774521443
  H   2.33096125822582     -5.52700138957610      5.02473279664354
  O   2.80188038109891     -6.38063762723257      4.80849263965003
  H   2.25841729522209     -7.11279234689546      5.13908016388488
  H   -0.33818522528642     -8.12382276153386      2.12162255765954
  O   0.49085023491410     -8.02892539625982      2.61732607436426
  H   1.22791849199328     -8.24864305513137      2.01547300731560
  H   3.78621484806694     -8.79552520504807      1.03928417700870
  O   3.02409859115942     -8.29643277865804      1.35517614810194
  H   3.39467916139775     -7.46199960317295      1.71678023417439
  S   1.33989195458703     -9.37443659391862      5.48389496640366
  H   0.83191149835647     -9.07890355065694      4.25653506671932
  H   2.49702575588043     -9.81783068161592      4.94960222545456
