21
Coordinates from ORCA-job 210_oniom.QMRegion
  H   1.95363809691828     -3.55391000192326      4.18547407852445
  O   1.83179244651855     -4.00401973128122      5.05174392605457
  H   2.29389000005725     -3.41343412766909      5.67464077049360
  H   3.28280316296691     -6.08445667541328      3.08470617894094
  O   3.70727917189149     -5.88662662421745      2.21646530414690
  H   2.99518086288703     -5.56031201241835      1.62026409464673
  H   4.44241925930061     -2.24729594726828      5.61835401692563
  O   4.07705265453845     -2.67080992949428      6.43320112789097
  H   4.43800233937611     -3.56973543080342      6.38846146475347
  H   2.18298338529303     -5.55190165493883      4.82162016731694
  O   2.56890548627782     -6.44416989692259      4.57560982703337
  H   1.82678006142098     -7.01484323858807      4.33536852918072
  H   5.68586009105046     -5.33991041354846      4.78836585899510
  O   5.19679061870966     -5.24234905436378      5.64312246528933
  H   4.36335463853230     -5.70451045248097      5.50538227795972
  H   6.73079019434079     -5.87724411736722      2.72429344389281
  O   6.77893967644498     -5.23498750152785      3.46001165988533
  H   7.67294310481350     -5.31240734969327      3.84769474442514
  S   4.57833013742714     -8.62164950827249      6.80499429775577
  H   3.61684342478637     -8.00211022006871      6.08603637785924
  H   5.38754716312020     -7.54466331187711      6.70937662180573
