36
Coordinates from ORCA-job 22_oniom.QMRegion
  H   -0.35605919367627      6.86834422681453     -2.29128530233845
  O   -1.10843940322849      7.27781852909639     -2.78939151018154
  H   -1.88510756409835      7.15134887533597     -2.19690790502216
  H   -0.85856503865973      4.45970970728936     -4.05471644720679
  O   -1.59757774269971      5.05977475431953     -4.26544586551335
  H   -1.36761248063576      5.90044098758363     -3.82085528459209
  H   0.64755544537578      3.06922946291242     -2.66223797660889
  O   0.62938562723221      3.43288914256762     -3.57881078564667
  H   0.72642978840575      2.64074890805460     -4.13232663690420
  H   2.23598793499576      5.82335836595965     -1.16733552256664
  O   3.17407374613152      5.53157017274305     -1.04254475462307
  H   3.29923200671789      4.84224909077068     -1.71896476251470
  H   3.40878262717503      3.38890263269137     -3.60217870937116
  O   3.22250297522675      4.34956792108366     -3.47397490934799
  H   2.24941754373781      4.34476036540143     -3.57323459044055
  H   -1.68764865668557      6.11749677092195     -7.16103531476055
  O   -2.05296118154417      5.31648171573778     -6.78004646012932
  H   -1.77773669077892      5.30447064459980     -5.80306728089481
  H   0.81991757521988      2.91999562673211     -7.16598626594815
  O   1.76278146160867      2.62946310245602     -7.19737513366465
  H   1.77000810850761      1.84482113816026     -7.78725948696440
  H   3.51543001733413      2.85970195877012     -6.61125523462186
  O   4.35758581511275      2.58180070457356     -6.21680839928776
  H   4.10425568542447      2.25433996544083     -5.32538253466968
  H   3.76982506551131      7.14902805490772     -1.37122862647996
  O   3.90329274426450      8.11587882339892     -1.48671408638996
  H   4.05026096398493      8.19970723096396     -2.43433127641814
  H   -1.37590824834450      3.69423959454032     -7.02773278883020
  O   -0.84627447511266      2.91571229242216     -6.75401977872762
  H   -1.11374321760266      2.12953123541687     -7.28848993196042
  H   3.93425838333909      6.04194746774024     -4.00371345569124
  O   4.25616212556949      6.93922070224161     -4.20997252420901
  H   5.18361631736136      6.80229446812131     -4.42797808891557
  S   1.32662939803098      6.57974225727216     -6.11740526947963
  H   1.90987211552681      5.44734436186205     -6.55905489502159
  H   2.49331182045759      7.06374798134615     -5.63328143718039
