15
Coordinates from ORCA-job 23_oniom.QMRegion
  H   -5.15373107780325      5.78471708485559     -5.52578416736503
  O   -4.52291887183569      5.03667131594834     -5.62817331327744
  H   -3.74252390929529      5.37370141327630     -6.09807936751797
  H   -5.48159758106908      3.41466306860438     -5.55106744145332
  O   -5.99943419649481      2.74219971666802     -5.08071420290287
  H   -5.32532448643268      2.17196557100103     -4.64787765441627
  H   -1.64579243485378      6.36286061930986     -6.88852831726000
  O   -1.99001481289132      5.48882104449403     -6.68420589355426
  H   -1.75528037991346      5.33553883504992     -5.71235798236917
  H   -1.27142287931157      3.71307975304163     -7.05722275470255
  O   -0.81524231891581      2.93061841049272     -6.72342267577087
  H   -1.04956707785755      2.14695808243128     -7.28616224361379
  S   -4.01200905094961      4.91202071637604     -9.59265252196347
  H   -3.07925788116538      4.94085291249615     -8.62005188774552
  H   -5.00042890106505      4.77676364386929     -8.68482967359083
