30
Coordinates from ORCA-job 242_oniom.QMRegion
  H   -5.04062920597192      5.65454105880366     -5.63249006602690
  O   -4.46001042228712      4.86949605503980     -5.62975357247501
  H   -3.67429308795213      5.07849600211445     -6.16636339054836
  H   -5.89926712864550      4.60265012388591     -2.92289410316655
  O   -6.80480922829997      4.48076821416693     -3.28540493923476
  H   -6.65441335051672      3.74954228297837     -3.93238726567747
  H   -5.51093419925711      3.31079229092267     -5.62082104752458
  O   -5.99853559823731      2.61614276351785     -5.14386017730343
  H   -5.29553468604670      2.07308401697248     -4.71618804282418
  H   -7.41065836043469      1.49981024450865     -5.25774789364818
  O   -8.00412990985804      0.76284631261000     -5.02741242150860
  H   -8.88985721566085      1.18070368655065     -4.88933332518462
  H   -10.21420724021381      2.94908869121869     -4.99331897349068
  O   -10.29018670359667      2.07176703082270     -4.59846807839629
  H   -10.35869082009991      2.30398873443755     -3.64157239007311
  H   -10.36679450128557      4.12761952828608     -2.67529452375193
  O   -10.42267657056039      3.31282063944057     -2.15352587762376
  H   -9.56597481965887      3.28041733860412     -1.67297679819006
  H   -5.78620006730332      7.34843628797706     -4.20791639525487
  O   -6.31767359192459      6.75956706645943     -4.78460926251586
  H   -6.55227589777596      5.98633305219891     -4.21617471287848
  H   -9.73245274500758      5.96214579643918     -4.54957400590877
  O   -10.25788452988020      5.12455803605557     -4.58925913291431
  H   -11.12381827907353      5.41389739269420     -4.89323523441243
  H   -8.97974410860140      7.98801468363822     -3.82493479463366
  O   -8.92296782731129      7.50282754324095     -4.65367849537624
  H   -7.95368482145092      7.34703384748695     -4.77204587370081
  S   -8.03312020173991      4.51610813565568     -7.39734354611158
  H   -8.29272623687229      3.19058289911241     -7.42567865310524
  H   -8.93131781891387      4.72659490195684     -6.40721994747134
