15
Coordinates from ORCA-job 262_oniom.QMRegion
  H   -9.03507175091406     -1.80990036096248     -2.21350768634414
  O   -8.50064219947376     -1.61590911890372     -1.42276990581444
  H   -8.58966841064495     -2.36633718953364     -0.78578336193886
  H   -6.85022483871901     -5.22190987732507     -1.32313811273822
  O   -7.78336270150322     -5.48453201078183     -1.53175684979118
  H   -7.90537583289103     -5.11016242765158     -2.42539208112249
  H   -6.97552726954720     -3.45728770580668     -3.44726337607740
  O   -7.58145516593903     -4.06562399425014     -3.93217008957383
  H   -7.01837905997606     -4.49340100748365     -4.61763060239678
  H   -8.72959273156482     -2.60970695218087     -4.29905787478575
  O   -9.33653945294547     -1.87698957206734     -4.07490257927735
  H   -9.02956557057036     -1.11647715063237     -4.58423633715230
  S   -11.23832907699811     -4.91708524819035     -4.19853263162964
  H   -9.92546317098409     -5.09399762211570     -4.44396321872967
  H   -11.09863799796716     -3.57597274840328     -4.22637811780430
