30
Coordinates from ORCA-job 268_oniom.QMRegion
  H   -0.64558224208435      6.36006576058913      5.01720342788310
  O   -1.24344176726183      6.92063779262316      5.57646456396568
  H   -1.26808149936867      7.81074974265998      5.14176341939603
  H   -1.58815343467408      4.46334663690583      7.77656461573453
  O   -0.68847876435285      4.57087437021200      8.15676926836029
  H   -0.45304583133751      5.51720052672016      8.11538724222276
  H   -3.81373144697609      4.60514781843394      7.92015117553922
  O   -3.22264465652053      4.20738195248921      7.23901785902687
  H   -3.38405466017952      3.25139190485542      7.34961431774213
  H   -3.77158803065447      5.22329155785726      5.68812157669091
  O   -3.76332696684898      6.05411900681331      5.18524876966068
  H   -2.82048563044494      6.32606954886782      5.24593451922327
  H   -2.12711446956758      5.40279185436011     10.76800104269560
  O   -2.71676179892946      4.66231902701513     11.02131023551845
  H   -2.77977594994191      4.68976211950635     11.97888591274070
  H   -4.28013589371521      4.84953233933210     10.01671788795106
  O   -4.86566337290217      5.02112475627477      9.25415339885163
  H   -5.44129844776242      4.24048413183971      9.17413653817001
  H   -1.08010848363352      7.69216078462158     10.93110798277777
  O   -1.37405133193898      7.03124677465193     10.29932881798958
  H   -0.81791468122846      7.16945703777905      9.49966961465700
  H   -3.86250192639914      8.97356165190672      6.62156902737079
  O   -3.88842510665469      8.93684743035445      5.65441441288954
  H   -4.07196087997224      7.99816037872307      5.47923933966378
  H   0.85481670090540      7.14787686035662      7.56869206684319
  O   -0.05519632073254      7.20851967001959      7.91345752420871
  H   -0.57683135157514      7.21292912173528      7.06306580049550
  S   -4.39577036511320      8.50925836946900      9.05463841675524
  H   -3.21533672331569      8.01251974249768      9.49271320453086
  H   -4.92788679757395      7.27011685377008      8.95956980120326
