30
Coordinates from ORCA-job 271_oniom.QMRegion
  H   1.60849888897937      3.36671504495265      6.87523212346428
  O   1.04839985017474      3.96505695090665      6.35832847263434
  H   0.25652380265028      4.11613099752485      6.92452221931501
  H   3.86104646294957     -1.16609239272285      7.12338389636909
  O   3.92645335289482     -0.19831439695475      7.20177129233889
  H   4.50901045388630      0.06811816907778      6.48058741088915
  H   6.59843850268946      1.28668566398892      4.55929788253859
  O   6.22816077140624      1.89949048088790      5.22058993385275
  H   6.36393980159094      2.78975250036214      4.80666780549616
  H   1.84419199686765      2.10681021204958      8.55215774743100
  O   2.56199662572908      2.09693698896900      7.89953306626381
  H   2.80941915667384      1.15696926205905      7.77968558283828
  H   4.52162175331855      2.08837183736530      5.06208436652262
  O   3.55260360000554      2.25763088429347      4.99721702796680
  H   3.21226111813165      2.23080861588379      5.89957204525462
  H   4.55064968338045      5.27955701978309      6.03654659406735
  O   4.36623367434344      5.91849425399265      5.32655656841818
  H   3.77485252781604      5.44613599360217      4.69096176803133
  H   2.77644824669199      3.69755408676679      3.85273276781723
  O   2.61010774962081      4.64078782473102      3.69281727567845
  H   2.43409593436764      4.72577134670006      2.72770575558783
  H   5.46126097757391      3.89886121366504      3.31358434753649
  O   6.20245619968371      4.21213106110164      3.86265768159330
  H   5.81907809105750      4.98259133072383      4.31935997948878
  H   2.78339501575565      6.68997155611636      6.07736078329852
  O   1.82270632193243      6.70086142308037      6.22759917111690
  H   1.56319886728271      5.76356722974989      6.12931694365260
  S   5.35402519464745      4.05646794082442      7.98555106823021
  H   4.27649436533995      3.26013680843613      8.19687381780437
  H   6.00947322608073      3.09045702537353      7.31058824464164
