21
Coordinates from ORCA-job 28_oniom.QMRegion
  H   3.43904443221629     -6.13411027188642      3.03318088773356
  O   3.78861479093270     -5.93256895603153      2.12631155670056
  H   3.03474603233357     -5.58091507305529      1.60311334886367
  H   6.64190078852617     -5.83655728870126      0.58185499623670
  O   6.28292325082730     -6.62880922711526      1.05592688581307
  H   5.37017109678179     -6.36446377155814      1.27890580213378
  H   5.90851548046223     -7.83022192613101     -0.13073089454703
  O   5.68888294255068     -8.57637948338198     -0.74092911845654
  H   4.80141235689574     -8.35809917635561     -1.09076605559586
  H   2.35568145224324     -8.11997501646044     -0.98894574147382
  O   3.00379475953435     -8.09470403987946     -1.71430953590471
  H   2.69812882635372     -8.75770186984735     -2.35753332418464
  H   6.87847506762237     -8.45311437795592     -1.96030394848562
  O   7.46296609607811     -8.14475932164461     -2.69501658982052
  H   7.61465697722276     -8.88445909676396     -3.28362424945435
  H   3.20880916383723     -9.16719427664172      1.47018449733819
  O   2.71752087000315     -8.36515200929852      1.22158947223328
  H   3.27293468758104     -7.62486611622026      1.52934296072248
  S   4.90155719126159    -10.86251114175149      1.49887745990138
  H   5.68027520142219    -10.30240017214854      2.44715089219985
  H   5.36965979861234    -10.01644288075948      0.52803317727506
