21
Coordinates from ORCA-job 293_oniom.QMRegion
  H   -5.33817481990612     -5.16739124620208      1.76692204267064
  O   -4.65918778222412     -5.79577994683430      1.42942632442732
  H   -3.81141301796197     -5.36211398359808      1.64363151605407
  H   -4.37406015690286     -2.53719917670076      4.13149006620446
  O   -5.29212622120758     -2.22877837188601      3.96643349580778
  H   -5.17347073417144     -1.44642766997507      3.37777010788700
  H   -5.83012310902245     -3.20070655918555      1.23238758377318
  O   -6.31943253640891     -3.74402388776613      1.90202929019931
  H   -6.13216535324780     -3.26727255602845      2.73095912097146
  H   -2.02903772458719     -3.05495747674547      4.54255724020628
  O   -2.91672716175274     -3.47568809987143      4.62874969417371
  H   -2.90902938226475     -4.11452854032040      3.88862148454943
  H   -5.26081908490816     -2.00321634504193      6.85792091119750
  O   -6.01349327309944     -1.55012149618160      6.43190433291380
  H   -5.92566798481561     -1.81766789132844      5.48835089584228
  H   -3.89318998437850     -3.73165989902779      7.69624895042713
  O   -3.71517503862873     -2.94445290661636      7.17473288956825
  H   -3.41711161477893     -3.27872901351422      6.30303892286040
  S   -6.56643190207132     -5.05124631468770      6.69084989890535
  H   -6.11374637952306     -4.89035665494060      5.43021697797600
  H   -6.90546980022647     -3.74291670973454      6.76950319271000
