18
Coordinates from ORCA-job 299_oniom.QMRegion
  H   -5.16966521755067      5.74225087086033     -5.54002323563787
  O   -4.54474434353238      4.98952473148476     -5.59427551259171
  H   -3.79109286907588      5.25982412643183     -6.14404929666278
  H   -1.68828885306425      6.22706876054365     -7.00783238408677
  O   -2.07601287907442      5.40604196012827     -6.69471705210990
  H   -1.80028742249911      5.32190448714910     -5.73085519446552
  H   0.91599015344557      3.01452593207446     -7.16933991925434
  O   1.82284180891136      2.64631276217371     -7.19452470004645
  H   1.79330375140619      1.88131007979506     -7.79895827992851
  H   -1.34321438202518      3.73306328847830     -7.03739016659097
  O   -0.80078068650594      2.99371378916918     -6.71669950945150
  H   -1.01479247710093      2.19076145082088     -7.24283220749400
  H   -0.09230309550087      0.33973263021830     -8.14246125266671
  O   -1.00498792103175      0.56464541487090     -7.88951932936618
  H   -1.16335543733887      0.07376556377261     -7.05989400951874
  S   -2.58248239113321      2.80006719364153    -10.04214523473982
  H   -3.80266006086150      2.62461332883070     -9.49328794119350
  H   -2.11013203787198      1.66968591168600     -9.47255660562472
