18
Coordinates from ORCA-job 301_oniom.QMRegion
  H   3.35845027868168      3.46189765022996     -3.58739212482677
  O   3.16015872040493      4.41853916313496     -3.48889814336733
  H   2.17948068267979      4.40267633713322     -3.52237702354835
  H   3.45785124205628      2.86279008496345     -6.64589481632766
  O   4.29666615015259      2.59900663832438     -6.22999408692595
  H   4.04180166665137      2.28494353862946     -5.33615500661888
  H   4.22826521868003      6.09549625564384     -3.77539178009747
  O   4.95483983173423      6.73017880367333     -3.66399658768959
  H   5.62586108600365      6.20078102514410     -3.21057106120455
  H   6.82050558155475      3.32086282863985     -4.50344726453504
  O   6.91733542613505      2.71674845994379     -5.26207891769458
  H   6.09674065260617      2.84662325815205     -5.76814021385496
  H   5.24553219050096      3.97985154942738     -2.93790565727462
  O   6.19945648066160      4.11182547096549     -2.89098577638255
  H   6.46230824529835      3.50016590797486     -2.17379119801018
  S   6.33429608580428      6.53858519104759     -6.85338329890397
  H   5.75990838199522      6.70366645465003     -5.63464359524978
  H   6.96357088035892      5.41071540648664     -6.46102144797272
