18
Coordinates from ORCA-job 30_oniom.QMRegion
  H   -2.43803362056256      3.01493576519252     10.45450128218986
  O   -2.25681240461150      2.09487889789517     10.17459520753629
  H   -2.85587907394357      1.93720939500833      9.42653164974667
  H   0.01019767121882      3.35661338041338      8.88387083048768
  O   0.28286300524075      2.45965363424705      9.17637579655904
  H   -0.49795738542195      2.17121064629926      9.68986100906006
  H   -2.02245884775247      5.41068754806873     10.69477605968544
  O   -2.73176233833498      4.75346078652776     10.89472531620393
  H   -3.00391314120541      4.95687645686208     11.79410560338858
  H   0.80712772280308      0.49486325387647      8.40561811647157
  O   0.80973380147177     -0.44018500278116      8.17098436479935
  H   -0.13108823413597     -0.65740996129159      8.07069854779697
  H   -2.58924726770826     -1.53289215281631      7.53571807548988
  O   -2.04326917563113     -0.75015057036016      7.72211145145861
  H   -2.66754637297863     -0.10103312585407      8.06418172473977
  S   -2.39816591302597      0.04600616390047     13.01332859084844
  H   -2.48805434348909      0.79201003398817     11.88714286776049
  H   -1.24421293669098     -0.52145648968436     12.60333787480536
