36
Coordinates from ORCA-job 316_oniom.QMRegion
  H   -4.59740905595265      0.46599331537188      2.11913019650466
  O   -4.96717533731703     -0.44848139888261      2.13822939007400
  H   -4.48413026537682     -0.95867239888402      1.47341987177968
  H   -4.88448781741420      2.50978758860796      1.33634568767793
  O   -4.21378351441284      2.10522979211141      1.92417378494672
  H   -3.38756719381280      2.12210029335243      1.37842902498003
  H   -5.75178464357336      0.79291279558397     -1.63056813601077
  O   -4.84254259573245      1.11586094712940     -1.49944047615631
  H   -4.91503668632633      2.00507689033269     -1.09752394644894
  H   -3.14358810189167      5.05485396904232      1.15081857677936
  O   -3.94542886225252      5.39265994677545      0.69226860856778
  H   -4.36185115663504      5.97029235385895      1.38486994028074
  H   -4.37271182456322      2.71928725795412      3.55799112657015
  O   -4.40963547854499      2.87523520187173      4.52686412910648
  H   -4.44678401720415      1.97255298352598      4.91353852155058
  H   -4.97844659250415      4.21282595060365      0.04053349579207
  O   -5.38687805226944      3.35399189830562     -0.20766304764562
  H   -6.33306316607135      3.47193986120093     -0.42126398335564
  H   -7.66189342044636      3.77462812758873     -2.02289733179574
  O   -7.92752394480429      3.19001551487261     -1.27502579938402
  H   -7.78290229547576      2.28406697990728     -1.63843418864226
  H   -6.37473340642705     -0.25222652938710      1.10651493679109
  O   -6.79811784677732     -0.32271690786872      0.22065056263428
  H   -7.63710423246434     -0.77280405086668      0.33936682477434
  H   -7.93633019083181      0.00098629063029     -1.99890228939749
  O   -7.42228752713585      0.71440873778893     -2.41064591929923
  H   -7.66621809449242      0.70967940650972     -3.36413443446105
  H   -5.69233256871834      3.76235352861213      5.33385823279583
  O   -6.40299751317992      4.11441487966914      5.91528327523735
  H   -6.16625070275763      5.03374858268395      6.06748885988660
  H   -10.49666945505921      4.05598096871961     -2.89873367069993
  O   -10.62841028698987      3.33644952732850     -2.25690570036314
  H   -9.77203359336003      3.28530059049142     -1.79797312451048
  S   -7.75312963207858      2.46250054959758      2.42932101389640
  H   -8.15213673664338      2.80841349011012      1.18946985930439
  H   -7.81268738488181      3.72717729281450      2.89524949795667
