27
Coordinates from ORCA-job 317_oniom.QMRegion
  H   -4.60366698239251      0.63368378313932      2.22307856955582
  O   -4.91265055296504     -0.30997269130129      2.21532920262906
  H   -4.38288293110732     -0.74051167845007      1.53115595643523
  H   -4.32436188645028     -2.63477351763406      4.27505078511931
  O   -5.20829663319132     -2.27319230651645      4.04390117996535
  H   -5.00522355664299     -1.46823990651018      3.51252280594569
  H   -5.84662832601599     -3.19317676860774      1.32864968909347
  O   -6.29571270893325     -3.74755674546961      2.01936650203831
  H   -5.96845283257944     -3.34760993884130      2.85335452877257
  H   -6.28918130630480     -0.00823795248555      1.06794372087140
  O   -6.70181408334740     -0.11307134357389      0.19438463389418
  H   -7.63300089200877     -0.28300450447347      0.37884171430121
  H   -5.39952659625328     -3.07307834323104     -0.62683820485393
  O   -5.18159499758238     -2.37572742182629      0.02055792782456
  H   -5.77169284545963     -1.61082902186649     -0.16865238020818
  H   -9.03219175787912     -1.76304513280187     -2.34152384212477
  O   -8.52046056492494     -1.55134589492795     -1.52910875477386
  H   -8.59119010975567     -2.31295595421386     -0.91664232808716
  H   -7.89569637502992     -3.78520185680814      0.87053064517488
  O   -8.60207900946334     -3.69544170658905      0.20649731169319
  H   -8.46201780545273     -4.44359173051234     -0.41141479145068
  H   -5.19186800508851     -1.94614740314233      6.99780352617103
  O   -5.91960103119680     -1.51008887193660      6.52619580927212
  H   -5.85794496794332     -1.87256450457811      5.61557433879038
  S   -9.08021561514446     -1.18334958219225      2.53103366597839
  H   -9.67986707465090     -2.05558782850086      1.69607141520813
  H   -8.04240737588650     -2.02888928942681      2.71913679698631
