6
Coordinates from ORCA-job 32_oniom.QMRegion
  H   9.25880480017211     -3.90064345700307      4.05107962953929
  O   9.12873179089899     -4.57729441841053      4.73095370982786
  H   8.62275683613650     -4.10020238378666      5.40823130910536
  S   11.96306323115310     -6.20071703838080      6.13461424178761
  H   11.22779820398392     -7.29650862332861      5.85441014869897
  H   11.01247409833540     -5.38361992597477      5.62583488393746
