18
Coordinates from ORCA-job 33_oniom.QMRegion
  H   -4.36967560604798      2.73503991841450      3.47670471159142
  O   -4.41266591245020      2.92436828150107      4.44015261771356
  H   -4.51339011042400      2.03459921625528      4.84832024137502
  H   -3.76677199721986     -0.01997510920337      4.99080353937249
  O   -4.39527527398045      0.47330964743772      5.57070659482207
  H   -5.05565693460519     -0.17768829448532      5.88791812417166
  H   -6.17463712154363      3.33052634187008      7.43037904197225
  O   -6.08899964011422      2.81100808325569      8.25558539909847
  H   -6.65268691001325      2.02118096245494      8.13128498886350
  H   -5.59074334445826      3.90489250823963      5.22761123297312
  O   -6.23921267799443      4.27113298246481      5.87670121693906
  H   -6.14721682856764      5.22653545097950      5.81665521607855
  H   -7.03195718056985     -0.25058310941198      7.27016749509091
  O   -7.51047708820735      0.52374489778598      7.61013677743952
  H   -8.03900498090217      0.83480592357930      6.85542177704314
  S   -8.94546170419359      2.32042573917582      5.13489050876889
  H   -8.26142931620999      1.83402048810204      4.07991239187733
  H   -8.00558690316688      3.27922566053333      5.35828830280741
