21
Coordinates from ORCA-job 345_oniom.QMRegion
  H   -2.39606834368085     -3.61638871871625      1.97454517112829
  O   -2.44536574826886     -4.53517007481824      2.31923973704241
  H   -1.50772096042277     -4.80020407230777      2.45658914318856
  H   -4.63510042462150     -5.15947359704734     -1.58979382243931
  O   -5.34880918269121     -4.79536365342408     -1.03313478002355
  H   -5.13467261426849     -5.12230826782210     -0.14194678947570
  H   -2.04136965135052     -8.20863916048408      0.49766933836095
  O   -1.69725406185798     -7.68181523983899      1.24611303543611
  H   -2.33758201943775     -7.81908222662735      1.96296170988497
  H   -5.42824117686696     -5.08491871603962      1.83039912687132
  O   -4.77170819738457     -5.75938857714675      1.51988566230243
  H   -3.89226929641220     -5.36534508831641      1.72651578765923
  H   -5.73349903817333     -8.07045877487736     -0.76723287156421
  O   -4.99132600678231     -8.14562372331492     -0.11974689110899
  H   -4.96806800677346     -7.29137659130181      0.34573461488386
  H   -2.80771972779141     -9.93738080088444     -0.97833615994857
  O   -2.68986556873516     -8.98540273416975     -1.02850506215155
  H   -3.59731279260566     -8.60999195485268     -0.83806015419177
  S   -4.14564877330024     -8.53544359973099      3.28998409543776
  H   -4.63901967466950     -7.30847515895249      2.99451429314022
  H   -4.69155732012885     -9.04047834624557      2.16206176377086
