12
Coordinates from ORCA-job 34_oniom.QMRegion
  H   -5.73672600640279     -3.13827199061749      1.38045994722418
  O   -6.23690338782708     -3.68233027102286      2.03935812774079
  H   -6.02454839095112     -3.25347851564624      2.89504739229929
  H   -9.03009649014558     -1.74266977940617     -2.26716666968064
  O   -8.52067563807735     -1.53128891137322     -1.45467775302971
  H   -8.59288602921396     -2.28693500631382     -0.83615724128872
  H   -7.80319368194148     -3.70301574271994      0.96110439608467
  O   -8.52154733327756     -3.64687919803822      0.30051304405559
  H   -8.37133399711773     -4.40078430590505     -0.30954773972638
  S   -11.05469164066443     -4.48784681032456      2.48391030494059
  H   -10.05535619821920     -4.84384990913759      3.31818061296137
  H   -10.17614497468844     -4.14717545832799      1.50774944568335
