15
Coordinates from ORCA-job 372_oniom.QMRegion
  H   1.95792345775417     -3.57936334161827      4.16289460834922
  O   1.83840731706223     -4.03460424425046      5.02559313430114
  H   2.35183581666763     -3.47236720297124      5.63360285799060
  H   4.45106039517918     -2.27665951966468      5.59127756201016
  O   4.08004935080694     -2.72599106040744      6.38848202282259
  H   4.42716180111073     -3.62672833155679      6.28856768407269
  H   2.19760071773131     -5.60271374601364      4.71491458200997
  O   2.50233923301244     -6.52908830164044      4.50459616309819
  H   1.73617268868044     -7.00429993571632      4.15084857306826
  H   5.72482897517760     -5.27947215212296      4.65309176394320
  O   5.28207586037063     -5.10050296896320      5.51548933129224
  H   5.08740467213356     -5.94302848927078      5.93849004431379
  S   3.04450541220827     -6.79311483217209      7.85825630720599
  H   2.56926281554124     -6.89571511247307      6.58962352970843
  H   2.52804834019402     -5.55370562638639      8.00119464670388
