18
Coordinates from ORCA-job 38_oniom.QMRegion
  H   -9.00106684566048     -1.69848509918485     -2.26139654320023
  O   -8.49014611147553     -1.48415659813005     -1.45748220516151
  H   -8.59264621234517     -2.23311445851838     -0.82059261311847
  H   -7.27972729584532      1.74016330574121     -5.29215306261084
  O   -7.89252609004457      1.01282230302265     -5.06793334834584
  H   -8.76818403902080      1.45634776409102     -4.96575459765657
  H   -7.82904308026371      0.20515861302928     -1.94573901931726
  O   -7.34695244815994      0.92705572704262     -2.37334293773085
  H   -7.55689073627229      0.92971470007450     -3.32871194938792
  H   -10.08909404022401      3.24359859678096     -4.92679617147184
  O   -10.17692281432967      2.32960246951822     -4.61164257368521
  H   -10.33967902763225      2.47616062315254     -3.64966153067580
  H   -8.81442711265085     -2.77081168821647     -4.17761351648537
  O   -9.31173382616107     -1.93074569227962     -4.05837321067229
  H   -8.89780033571214     -1.31125099919908     -4.67217113308906
  S   -12.24719885430796     -0.45524553207388     -5.55833838650739
  H   -11.38065549625506     -1.22069676458801     -4.86060883905221
  H   -11.61658792116513      0.68812858157977     -5.21269023898670
