30
Coordinates from ORCA-job 405_oniom.QMRegion
  H   -6.13102720370443     -1.54488915919780     -3.43675353073312
  O   -6.24718094257008     -2.21587049817759     -2.73774976358137
  H   -7.01300832342533     -1.92150586358407     -2.19185173058490
  H   -5.11642357244436     -0.00449802181122     -4.74528062000789
  O   -5.70053721375524     -0.73446707216876     -5.03212069403309
  H   -6.54000960376648     -0.29110650186986     -5.23256980356945
  H   -7.36166890365313      1.76625988146389     -5.27887075022687
  O   -7.95353953360278      1.01338787265116     -5.09161487630885
  H   -8.84804043111220      1.43411852573135     -4.94144472265757
  H   -4.06428262252398     -3.10585684633837     -4.90803926061605
  O   -4.18827596058141     -3.04169784047329     -5.88597589870669
  H   -4.57646456294291     -2.16425667910999     -6.00440473626609
  H   -7.91997278616786      0.08218579386716     -1.98009433016114
  O   -7.40608661517103      0.80371776289723     -2.37164819982930
  H   -7.62844124193279      0.84864587830919     -3.32244708466805
  H   -6.99759798876693     -3.54497457149296     -3.59181164469821
  O   -7.58995506688070     -4.21921778283881     -3.99611574851632
  H   -7.01779194066852     -4.72662746613050     -4.61535164419701
  H   -10.14404890539757      3.15292449583816     -4.87933701718402
  O   -10.26149671613778      2.22301872604453     -4.62398433918245
  H   -10.42384326074654      2.31685885948571     -3.65850058363725
  H   -5.16769546999925     -5.89963668505373     -5.46791376194212
  O   -5.85440520479399     -5.30018950697355     -5.80466729576549
  H   -5.35349414175055     -4.48533678143786     -6.00623906850954
  H   -9.09782018713862     -3.21490610272649     -3.90065487190124
  O   -9.75016177205223     -2.53541022310897     -3.63056947075562
  H   -9.83118594753056     -1.97891982368656     -4.41461811586690
  S   -9.14565637853686     -1.69540631324744     -6.93114279108183
  H   -8.61111999414486     -0.49540717086891     -6.61718045198910
  H   -8.02852039193469     -2.35886589674802     -6.56150189732726
