18
Coordinates from ORCA-job 40_oniom.QMRegion
  H   7.87581490613239     -1.68742069609799     -4.04728256017363
  O   7.66958070268609     -1.34683808402834     -3.14443102498911
  H   7.14132740833762     -0.52139235130595     -3.29878103877079
  H   9.48631365687039      0.62088980504812     -0.51558255186304
  O   8.55856247268302      0.55784000284433     -0.25077165544311
  H   8.40892087845180     -0.36346305091107      0.01011742131093
  H   7.93073046900404     -3.08466628648374      0.40433537326464
  O   8.37697955074908     -2.24009206363150      0.64043974842720
  H   8.31686951429094     -2.24003993079290      1.60792581804547
  H   9.64092643628128     -2.34601932744802     -0.90465988883799
  O   9.92923771212334     -2.17360405808216     -1.81680705192011
  H   9.17613636014180     -1.67777905956465     -2.20485293332078
  H   9.92416903802891     -3.47994622568920     -3.16606282865694
  O   9.72103692590757     -4.12066371445526     -3.87542673599625
  H   9.23801917398354     -3.60836964255202     -4.53839842275996
  S   11.84218591237282      0.46619005376909     -1.26288692870383
  H   11.31654925757398     -0.75314968459260     -1.57174304173141
  H   11.63192306297051      0.92795513342345     -2.51306880319392
