18
Coordinates from ORCA-job 428_oniom.QMRegion
  H   -0.73596581762390      8.77164498402448     -2.31276236034264
  O   -0.59868679690470      9.63382104026799     -1.84677498546678
  H   0.15021627446009      9.47636327855995     -1.24805025791251
  H   1.84262593092738      8.31553818846176      0.62948259351780
  O   1.52454004852366      8.61923237616833     -0.25448105750798
  H   2.31442054336001      8.55185094893537     -0.82051380947787
  H   3.76185751308094      7.04674373487545     -1.24754121111440
  O   4.00454269910459      7.97282566097708     -1.48470486404615
  H   4.35398752863032      7.84233739271041     -2.38704452758537
  H   5.01920980867186      8.42126487225969      0.12749232157367
  O   5.27451547459329      8.42143250526135      1.06828797928978
  H   5.53724978436124      7.49856577661792      1.21324997882219
  H   3.61565153137470      8.18939157323347      1.90741618578924
  O   2.79100476654682      7.66632469325483      1.96482253518498
  H   2.34671450081728      7.85880741372560      2.80930138183701
  S   3.10578734920088     11.73001801831517     -1.44562751014057
  H   2.47971665191268     11.06020891976510     -0.45498101201772
  H   3.77172550632581     10.62149243987070     -1.82205326422721
