15
Coordinates from ORCA-job 42_oniom.QMRegion
  H   -2.37845853123759      8.71091660608921      1.21502858652214
  O   -2.20843042216718      8.15639224858434      1.99453445362063
  H   -1.44496839685177      7.58746990962365      1.76918035403778
  H   -1.88614520479322      8.96025251840294      3.49717965091594
  O   -1.71261329381165      9.28625872987916      4.41137147157518
  H   -2.57709602744558      9.20984175008285      4.87047625153729
  H   -3.98130929076200      8.62912739977065      6.69967581861524
  O   -4.10568169617352      8.63040711273326      5.74565940745676
  H   -4.14704469640925      7.67585563277092      5.51785982500759
  H   0.48858609248488      8.65400894526246      4.30091463680047
  O   1.09570916706866      7.96133010817890      4.02248452427793
  H   1.32682463119760      7.45149590903387      4.82945994075251
  S   -1.42507326899398     12.73509943307979      4.16101556122132
  H   -2.71002619972784     12.82324680215471      4.56178226975831
  H   -1.44347108356036     11.37955676376813      4.24788291091771
