30
Coordinates from ORCA-job 441_oniom.QMRegion
  H   -2.18384956664171     -8.04830327579483      0.64276216511689
  O   -1.83064874616212     -7.49751871626897      1.37050985709050
  H   -2.60624681840769     -7.11110562987443      1.79372579414966
  H   0.10498212873106     -7.11202010472400     -1.11775747259323
  O   0.52090461947452     -7.53017383682170     -0.31788466073882
  H   -0.16010941974383     -7.43569962739256      0.36036239070774
  H   2.52397749375180     -8.06655456724933     -0.77317427781748
  O   3.06581242111027     -8.00705419843448     -1.57372878112158
  H   2.75125742167129     -8.70327673457292     -2.18117575979281
  H   -0.89382771411914     -7.11182742616145     -3.15418297212492
  O   -0.43558954261228     -6.45871892857985     -2.58828557768914
  H   0.46427793385702     -6.33992001071739     -2.99077093590467
  H   -2.59688830897059     -9.88413334965546     -0.62414160692569
  O   -2.64811048166946     -8.95765375017181     -0.88330498959731
  H   -3.58507488529511     -8.68651464917986     -0.65666403181300
  H   -0.11629727801112     -8.04008735983297      2.67107818402752
  O   0.73239209456130     -7.77957302840015      3.04759627662592
  H   1.41869424162720     -8.09771234212070      2.43649668866564
  H   -2.30392213785294     -8.79277569335383     -2.77972631703712
  O   -2.02468306456366     -8.43724857692649     -3.64244429077263
  H   -1.40923677885970     -9.05785095746951     -4.05511529773906
  H   1.72369210475140    -10.51056241555413     -2.74725151233144
  O   2.10855167052114     -9.88846408166466     -3.38095207149968
  H   1.35458864390872     -9.62881514016385     -3.95559582966639
  H   3.80231644464671     -8.86622989283473      1.17298901089325
  O   3.04772170967689     -8.29462505599804      1.35013187073552
  H   3.46260786238901     -7.45953315242557      1.66750687379877
  S   0.28226955969027    -10.83370229558966     -0.72760018359268
  H   0.38094295363646     -9.47328778233567     -0.57818914347494
  H   1.14845518154789    -11.05852615979583      0.28487832211180
