18
Coordinates from ORCA-job 477_oniom.QMRegion
  H   -9.12177288425738     -1.85420396087446     -1.96861706428838
  O   -8.54104394164608     -1.55171149274729     -1.24460797729540
  H   -8.51547114181690     -2.25924942251654     -0.56113708063279
  H   -7.79866876860179     -3.65718608948176      1.26747113744650
  O   -8.49779102939320     -3.56093433905133      0.59206333284634
  H   -8.35236323868496     -4.30931855743586     -0.02305869415114
  H   -6.87703295524717     -5.19933794923619     -1.15363094418400
  O   -7.82013823489798     -5.44494757712507     -1.33232094631427
  H   -7.93608739468209     -5.10993104196061     -2.24851486070125
  H   -7.08805576587167     -3.44432050311801     -3.29036360800417
  O   -7.69650812715794     -4.09927145593377     -3.70412921586399
  H   -7.17188889574473     -4.52158644024070     -4.42416769668014
  H   -9.19069070276813     -3.10208104063124     -3.78675769010065
  O   -9.88834052722314     -2.48347177762264     -3.47921408615042
  H   -9.98414064568889     -1.83500467695631     -4.18344498799249
  S   -11.94636601847560     -3.86084563379855     -0.63815385687471
  H   -11.36558930139709     -3.36663699974038     -1.75190690608913
  H   -10.81701415348074     -3.72141325597438      0.08953738923647
