33
Coordinates from ORCA-job 49_oniom.QMRegion
  H   -0.16848114322733     -3.61427703777813      3.66027424613761
  O   -0.45758403275369     -2.79521438250182      4.09710830022801
  H   0.18952010837982     -2.65617770503274      4.80499614966708
  H   -0.96767391342005      0.63530821176139      5.96330778199939
  O   -0.66330554570553      0.11620367388864      5.19670630265441
  H   0.06625060231050     -0.45884507852475      5.50251899490278
  H   2.07192589040315     -3.63336938310502      4.18678855816357
  O   2.02067899282675     -4.10252339204717      5.04696829666580
  H   2.61112758002476     -3.56921340542260      5.61727388264608
  H   4.53842203412135     -2.34745569205541      5.58935325511617
  O   4.21280080452181     -2.84295322952074      6.37879650993380
  H   4.56177505988534     -3.74235175199545      6.23319454700219
  H   2.33358250678377     -5.71593915273634      4.75491397727171
  O   2.70514660128964     -6.60172849684303      4.51691575128810
  H   1.96689516076642     -7.14914293253501      4.22231073484397
  H   2.02944551802165     -0.81769434503684      5.14919290758458
  O   1.46323097426537     -1.31952420084350      5.77262022136730
  H   1.59453324890250     -0.93242863054890      6.65291857627390
  H   -2.14937997400396     -3.06968365123738      4.48635562144648
  O   -3.01608677897251     -3.52140561750222      4.58747621988104
  H   -3.01368891341476     -4.15362572472058      3.84176982012681
  H   -3.17701693134989     -3.53399823566115      7.72493132323836
  O   -3.60585095320445     -2.91916151298703      7.12476773378098
  H   -3.43076087857036     -3.28446978891426      6.22564360996242
  H   0.60467341715145      0.35341944148344      8.85959124943322
  O   0.51386025105899     -0.41506567485359      8.28470243399425
  H   -0.45401670547996     -0.50010243360784      8.14131282098474
  H   -2.63923840268431     -1.46036398865754      7.45687326891926
  O   -2.18407454067884     -0.62640769632465      7.70637153445512
  H   -2.82899829721308     -0.12849201012586      8.22041120333875
  S   -0.27194784389302     -4.08073443961483      8.04797627521720
  H   0.22173135427555     -2.86371280487181      8.36470809615107
  H   0.35699678980364     -4.09327880981837      6.85273165598617
