27
Coordinates from ORCA-job 4_oniom.QMRegion
  H   4.35798695099348     -2.39174687124315      5.56141484536653
  O   4.03069321926765     -2.87080332818039      6.35618029362741
  H   4.41946886760837     -3.76001863974812      6.24745208451189
  H   4.94508537510767     -2.16368552427358      3.55280185107894
  O   4.94605022149450     -1.44265382824709      4.22084779319470
  H   4.11603701611146     -0.91524215580311      4.03524459268709
  H   3.82834991246573     -1.10453823825898      7.16987363407369
  O   3.88256620513972     -0.13425753983646      7.16757798083344
  H   4.50027868120987      0.06783718577433      6.45501351016446
  H   6.65244291074348      1.12412049498901      4.67018666515835
  O   6.25768732862382      1.67376829558869      5.37804075896471
  H   6.38865012456057      2.59036512460808      5.03132454014042
  H   7.56021538562403     -0.61627296319134      3.04958655485583
  O   6.88073196066992      0.04556767307205      3.23554089879322
  H   6.13898573117364     -0.51829131090675      3.58288695757720
  H   1.81611879765572      2.26021920185020      8.47310964011326
  O   2.56153503044990      2.26906997669343      7.85122521675385
  H   2.79322212158283      1.33306346477205      7.72124226024533
  H   4.48535708627170      2.06390250620887      5.08954972121833
  O   3.53772227351878      2.26242468370026      4.97368554737609
  H   3.13647818587526      2.27511381349415      5.85202680119061
  H   7.27491467698315     -2.29725570794331      6.52977332636359
  O   7.38779328648302     -3.04528972645527      5.91712775089071
  H   6.60519069558983     -3.60085121182575      6.00507060600912
  S   7.32407204548234     -0.34967190707394      7.93023872177486
  H   6.00912166999122     -0.33798797092363      8.24230899342723
  H   7.14344516538529      0.61894294243638      6.99574381952147
