30
Coordinates from ORCA-job 54_oniom.QMRegion
  H   -3.94509806043939      5.78433543648994     -2.45504950187325
  O   -4.27098041359154      4.98735723893511     -2.88186950770584
  H   -4.06206305739508      5.03439980446418     -3.84698719816227
  H   -0.31905559678883      6.88886983202425     -2.28715146533343
  O   -1.06441296860259      7.29423183487224     -2.81413932286801
  H   -1.85163172199271      7.16186818982308     -2.24586753041011
  H   -0.52784026743393      4.56697356299807     -4.14216307515337
  O   -1.29718109196483      5.11623245452306     -4.40045366371778
  H   -1.18833826010986      5.94732085057086     -3.90036395997881
  H   -5.10457304334095      5.66535724248594     -5.60019142837491
  O   -4.46626000358995      4.93293105567180     -5.55532650630112
  H   -3.72428204245062      5.11933493149149     -6.17176579549230
  H   -1.95288107074890      6.13120974658542     -7.26499217593741
  O   -2.14640650360635      5.29164958440775     -6.84211648792002
  H   -1.70182079973981      5.31731948329684     -5.94182892327780
  H   -1.94613292233871     10.38483439320025     -2.89895925303163
  O   -2.80810671012844     10.54950411454715     -3.31648162184385
  H   -2.63168455815929     10.47015882482540     -4.26326411206720
  H   -5.95871430179468      7.32764337922337     -4.21759387257633
  O   -6.46425045217156      6.72390000645050     -4.78948367089331
  H   -6.70287975587094      5.96318711758059     -4.19470347592454
  H   -4.14790593026045      9.19237139838894     -3.24228598332833
  O   -4.68497898760275      8.37615988909040     -3.21037386381741
  H   -4.27766167226913      7.87889844693277     -2.48013621695702
  H   -9.30457089662929      7.82018102609685     -4.21522704319881
  O   -9.10175081912277      7.37602122126655     -5.04368490124818
  H   -8.12994342234400      7.23157620505168     -5.00940881198877
  S   -3.10803877792614      8.68600654926238     -6.31070549432713
  H   -4.34696453600771      8.94195684919551     -6.78356137853965
  H   -3.59988665937532      8.12819799723797     -5.17912924543157
