18
Coordinates from ORCA-job 63_oniom.QMRegion
  H   4.47707688567454     -2.61686526561184      5.67594315994390
  O   4.14359436889638     -3.22558936909403      6.36451250471177
  H   4.49008835811469     -4.10547216223064      6.09240879409925
  H   4.99155392933001     -2.15874506309268      3.59760285137216
  O   4.98310381126698     -1.46717689239984      4.29591103337069
  H   4.17749823520905     -0.92261330994187      4.10009373013748
  H   1.98371064233763     -0.81558966606700      5.20825410931395
  O   1.50541229229747     -1.38693830502866      5.83929129450650
  H   1.46836137427007     -0.95358965627503      6.70871903138770
  H   4.21134057578394     -0.28967049151397      6.74760157200121
  O   4.46640670323195      0.49796786721813      7.23752732276400
  H   5.16129259873402      0.91352586606385      6.68894363149308
  H   7.24424128967304     -2.73713484093240      6.85177535378192
  O   7.35173427068342     -3.21215760241915      6.01213817469557
  H   6.66075007475872     -3.88437388349003      6.02709457642595
  S   6.05567488267409     -2.20109524849548      8.97647014796201
  H   5.63519518132350     -0.94912482171275      8.68422852749757
  H   5.09383016051707     -2.74276345230958      8.18321529861269
