12
Coordinates from ORCA-job 71_oniom.QMRegion
  H   -6.94543356019161     -0.06435691575904      7.07847803675590
  O   -7.52293862582173      0.61467382512719      7.47483905013462
  H   -8.01283726483482      0.98072465782794      6.73270594106643
  H   -5.27895282025073     -2.00288638577946      6.88423641702002
  O   -5.96738517693530     -1.51349318833347      6.39663192225916
  H   -5.88459582109043     -1.86991431873024      5.47436596924933
  H   -3.47840835799066     -3.68338189982085      7.73721890891400
  O   -3.63459563648240     -2.93078069261082      7.16193624947442
  H   -3.35749350334228     -3.21771320169851      6.26315892214061
  S   -8.32989327286770     -2.52880545982634      8.95330400729988
  H   -8.37437572386859     -1.19285270259405      8.74944665324687
  H   -7.75241492683675     -2.71233553858278      7.74775343455726
