30
Coordinates from ORCA-job 7_oniom.QMRegion
  H   -1.62718740193858     -0.83657381475144     -4.58591032652940
  O   -1.11479006110619     -0.60850572734975     -5.39013048282404
  H   -0.37721367476199     -0.07111695511667     -5.06686163359200
  H   -3.32143017326426      1.56374325916850     -4.09283932596378
  O   -4.18487610067583      1.10647276614910     -3.91363796629577
  H   -4.38906822459805      1.23506664280379     -2.94635240725999
  H   -1.14863926230172      1.57178929639163     -3.89280325163727
  O   -1.81817994112877      2.17241138314701     -4.27891414652555
  H   -1.45676173120298      2.54137672285546     -5.11366678461094
  H   -5.17838985050624      5.75845583631929     -5.53605761294882
  O   -4.56622154086861      4.99446566704479     -5.61421715979422
  H   -3.81422052750439      5.27650298767395     -6.16058140947946
  H   -5.60173294627652      3.46999900112364     -5.60468797871611
  O   -6.08253662992079      2.76232415309959     -5.13770332256199
  H   -5.38759135685511      2.28040729534525     -4.64893422474441
  H   -5.24121341414242     -0.14250661521773     -4.65594917707285
  O   -5.85688804493520     -0.84311616473424     -4.94266796377692
  H   -6.69945408245190     -0.38610183826746     -5.09989341464217
  H   -1.66039570266087      6.27178246685519     -6.95949552075652
  O   -2.04987310797386      5.43204991176327     -6.69969602751207
  H   -1.81030407929431      5.32334657416215     -5.72987243750991
  H   -1.30398006073411      3.75995282894637     -7.03980209341018
  O   -0.84398101412813      2.96804047277493     -6.71336490078242
  H   -1.05418255470885      2.19523159603384     -7.29128507310397
  H   -0.10864771964822      0.37758268948420     -8.22293961859853
  O   -1.02597471414332      0.59906977499649     -7.97432359235148
  H   -1.19826318501068      0.08160074915952     -7.16731800603379
  S   -4.11121092071073      2.20937291605263     -8.55830579052859
  H   -4.70525435670224      1.35270931101856     -7.69879591152270
  H   -3.07590871964515      1.36685480548064     -8.76126065943414
