9
Coordinates from ORCA-job 88_oniom.QMRegion
  H   -9.64548184524489      5.82198161397945     -4.38709419855936
  O   -10.24895645596543      5.06092561682520     -4.34921095758837
  H   -11.03619685316693      5.37125032897791     -4.81016458743453
  H   -8.87566651348918      8.09738863161984     -3.86514319574867
  O   -8.84890573576790      7.54663071019421     -4.65409806658012
  H   -7.88609201945217      7.37741972497804     -4.80040687305090
  S   -11.50338609166447      7.25344467170474     -6.83650928159089
  H   -10.40678970588184      7.68196887030085     -6.17169852178892
  H   -10.76655101308204      6.45263806919702     -7.63352961018557
